Version 4
SHEET 1 1000 680
WIRE 336 -128 192 -128
WIRE 720 -128 336 -128
WIRE 864 -128 720 -128
WIRE 864 -48 624 -48
WIRE -32 -16 -224 -16
WIRE 192 -16 192 -128
WIRE 192 -16 96 -16
WIRE 624 -16 624 -48
WIRE 416 0 240 0
WIRE 480 0 416 0
WIRE 416 16 416 0
WIRE -32 64 -32 48
WIRE -32 64 -224 64
WIRE -224 80 -224 64
WIRE 96 112 96 48
WIRE 96 112 -144 112
WIRE 336 144 336 -128
WIRE 240 160 240 0
WIRE 304 160 240 160
WIRE 416 176 416 80
WIRE 416 176 368 176
WIRE 480 176 480 80
WIRE 480 176 416 176
WIRE 496 176 480 176
WIRE 608 176 576 176
WIRE 720 176 608 176
WIRE -272 192 -320 192
WIRE -240 192 -272 192
WIRE -144 192 -144 112
WIRE -144 192 -176 192
WIRE -112 192 -144 192
WIRE 48 192 -32 192
WIRE 144 192 48 192
WIRE 304 192 144 192
WIRE -320 224 -320 192
WIRE 144 240 144 192
WIRE 240 240 240 160
WIRE 608 240 608 176
WIRE 48 256 48 192
WIRE -320 336 -320 304
WIRE 48 336 48 320
WIRE 48 336 -320 336
WIRE 144 336 144 320
WIRE 144 336 48 336
WIRE 240 336 240 320
WIRE 240 336 144 336
WIRE 336 336 336 208
WIRE 336 336 240 336
WIRE 608 336 608 304
WIRE 608 336 336 336
WIRE 336 368 336 336
WIRE 608 368 608 336
FLAG 608 368 0
FLAG 336 368 0
FLAG 624 -16 0
FLAG 720 -128 5V
FLAG -272 192 Isens
FLAG 720 176 ADC
FLAG -224 80 0
SYMBOL res -16 176 R90
WINDOW 0 0 56 VBottom 2
WINDOW 3 32 56 VTop 2
SYMATTR InstName R5
SYMATTR Value 10k
SYMBOL res 160 336 R180
WINDOW 0 36 76 Left 2
WINDOW 3 36 40 Left 2
SYMATTR InstName R1
SYMATTR Value 100k
SYMBOL res 256 336 R180
WINDOW 0 36 76 Left 2
WINDOW 3 36 40 Left 2
SYMATTR InstName R2
SYMATTR Value 1k
SYMBOL res 480 192 R270
WINDOW 0 32 56 VTop 2
WINDOW 3 0 56 VBottom 2
SYMATTR InstName R6
SYMATTR Value 1k
SYMBOL cap 64 320 R180
WINDOW 0 24 56 Left 2
WINDOW 3 24 8 Left 2
SYMATTR InstName C1
SYMATTR Value 100n
SYMBOL cap 624 304 R180
WINDOW 0 24 56 Left 2
WINDOW 3 24 8 Left 2
SYMATTR InstName C2
SYMATTR Value 100n
SYMBOL cap 432 80 R180
WINDOW 0 24 56 Left 2
WINDOW 3 24 8 Left 2
SYMATTR InstName C4
SYMATTR Value 0.01m
SYMBOL res 464 -16 R0
SYMATTR InstName R3
SYMATTR Value 100k
SYMBOL OpAmps\\LTC1050 336 112 R0
SYMATTR InstName U1
SYMBOL voltage 864 -144 R0
WINDOW 123 0 0 Left 0
WINDOW 39 0 0 Left 0
SYMATTR InstName 5V
SYMATTR Value 5
SYMBOL graphite 16 16 R0
SYMATTR InstName X1
SYMBOL voltage -224 -32 R0
SYMATTR InstName V1
SYMATTR Value PULSE(0 1 0.2 0.1 0.1 10)
SYMBOL cap -176 176 R90
WINDOW 0 0 32 VBottom 2
WINDOW 3 32 32 VTop 2
SYMATTR InstName C5
SYMATTR Value 1p
SYMBOL voltage -320 208 R0
SYMATTR InstName V2
SYMATTR Value SINE(0 325 50)
TEXT -112 -136 Left 2 !.tran 12
TEXT -104 -104 Left 2 !;ac oct 200 0.1 100
TEXT -296 408 Left 2 !.param G0 10n
TEXT -296 432 Left 2 !.param G1 10n
TEXT -296 456 Left 2 !.param R1 1k
